@<TRIPOS>MOLECULE
TPP
   61    64     1     0     0
SMALL
bcc


@<TRIPOS>ATOM
      1 S          -36.3230   -34.6810    24.2950 ss         1 TPP       0.587000
      2 C          -34.9450   -35.2240    23.4370 c2         1 TPP      -0.223000
      3 N          -33.8270   -34.9430    24.1300 na         1 TPP      -0.044000
      4 C1         -34.0480   -34.4030    25.4050 c2         1 TPP      -0.104000
      5 C2         -35.3790   -34.2180    25.6950 c2         1 TPP      -0.268000
      6 C3         -35.9910   -33.8260    27.0090 c3         1 TPP      -0.213000
      7 C4         -36.3560   -32.3460    27.2040 c3         1 TPP       0.086000
      8 O          -36.7330   -32.1670    28.5530 os         1 TPP      -0.752000
      9 P          -37.9460   -31.0730    28.8720 p5         1 TPP       2.038000
     10 P1         -39.9240   -33.3160    28.4880 p5         1 TPP       1.700500
     11 N1         -30.0550   -32.1620    23.6090 n2         1 TPP      -0.264000
     12 O1         -37.6780   -29.7330    28.2890 o          1 TPP      -0.924000
     13 O2         -40.1100   -33.2480    30.0580 o          1 TPP      -0.963167
     14 C5         -30.6350   -31.3410    22.7120 c2         1 TPP       0.044000
     15 O3         -38.0710   -31.1200    30.4170 o          1 TPP      -0.924000
     16 O4         -38.8680   -34.3750    28.0700 o          1 TPP      -0.963167
     17 N2         -31.7610   -31.6030    22.0610 n2         1 TPP      -0.294000
     18 O5         -39.2130   -31.7800    28.1710 os         1 TPP      -1.286000
     19 O6         -41.1470   -33.3680    27.6390 o          1 TPP      -0.963167
     20 C6         -32.4060   -32.7850    22.2680 c2         1 TPP       0.199000
     21 N3         -33.5310   -33.0070    21.5900 nv         1 TPP      -0.331000
     22 C7         -31.8580   -33.7270    23.2130 c2         1 TPP      -0.236000
     23 C8         -30.6860   -33.3280    23.8310 c2         1 TPP      -0.009000
     24 C9         -32.4550   -35.0660    23.5700 c3         1 TPP       0.008000
     25 C10        -29.9750   -30.0220    22.4260 c3         1 TPP      -0.147000
     26 C11        -32.9010   -34.2010    26.3350 c3         1 TPP      -0.167000
     27 H          -36.9120   -34.3970    27.2190 hc         1 TPP       0.171500
     28 H1         -35.2710   -34.0890    27.8040 hc         1 TPP       0.171500
     29 H2         -35.4920   -31.6960    26.9770 h1         1 TPP       0.045000
     30 H3         -37.1730   -32.0700    26.5100 h1         1 TPP       0.045000
     31 H4         -33.8450   -32.2780    20.9510 hn         1 TPP       0.255500
     32 H5         -33.8620   -34.0170    21.4290 hn         1 TPP       0.255500
     33 H6         -30.2180   -33.9990    24.5650 h4         1 TPP       0.152000
     34 H7         -32.5390   -35.7470    22.7140 h1         1 TPP       0.156000
     35 H8         -31.8220   -35.5530    24.3280 h1         1 TPP       0.156000
     36 H9         -29.8780   -29.4340    23.3510 hc         1 TPP       0.077333
     37 H10        -30.5490   -29.4490    21.6850 hc         1 TPP       0.077333
     38 H11        -28.9520   -30.1750    22.0480 hc         1 TPP       0.077333
     39 H12        -32.3260   -35.1380    26.4430 hc         1 TPP       0.103000
     40 H13        -33.2730   -33.9010    27.3240 hc         1 TPP       0.103000
     41 H14        -32.2110   -33.4180    25.9810 hc         1 TPP       0.103000
     42 C          -34.7120   -37.5460    22.4390 c2         2 LIG       0.309000
     43 C1         -35.0050   -35.9810    22.0980 c3         2 LIG       0.272000
     44 O          -33.4610   -37.8290    22.5300 o          2 LIG      -0.602000
     45 O2         -35.8040   -38.1790    22.9170 o          2 LIG      -0.602000
     46 O3         -34.0540   -35.5080    21.2460 o          2 LIG      -0.704000
     47 C12        -36.3800   -35.8250    21.4960 c2         2 LIG      -0.095000
     48 C13        -37.6450   -35.9850    22.1590 ca         2 LIG      -0.033000
     49 C14        -38.6500   -35.7600    21.2160 ca         2 LIG      -0.033000
     50 C15        -36.6700   -35.5100    20.1800 c2         2 LIG      -0.131000
     51 C16        -38.0350   -36.2960    23.4800 ca         2 LIG      -0.045000
     52 C17        -40.0140   -35.8330    21.5220 ca         2 LIG      -0.169000
     53 C18        -39.3940   -36.3700    23.8040 ca         2 LIG      -0.187000
     54 H          -37.2870   -36.4780    24.2500 ha         2 LIG       0.191000
     55 C19        -40.3680   -36.1430    22.8370 ca         2 LIG      -0.145000
     56 H15        -40.7750   -35.6570    20.7690 ha         2 LIG       0.100000
     57 H16        -39.6900   -36.6090    24.8240 ha         2 LIG       0.100000
     58 H17        -41.4200   -36.2070    23.1070 ha         2 LIG       0.087000
     59 N          -38.0290   -35.4740    20.0250 na         2 LIG      -0.213000
     60 H18        -36.0280   -35.3090    19.3310 h4         2 LIG       0.164000
     61 H19        -38.5130   -35.2670    19.1610 hn         2 LIG       0.196000
@<TRIPOS>BOND
     1     1     2 1   
     2     1     5 1   
     3     2     3 1   
     4     2    43 1   
     5     3     4 1   
     6     3    24 1   
     7     4     5 1   
     8     4    26 1   
     9     5     6 1   
    10     6     7 1   
    11     6    27 1   
    12     6    28 1   
    13     7     8 1   
    14     7    29 1   
    15     7    30 1   
    16     8     9 1   
    17     9    12 1   
    18     9    15 1   
    19     9    18 1   
    20    10    13 1   
    21    10    16 1   
    22    10    18 1   
    23    10    19 1   
    24    11    14 1   
    25    11    23 1   
    26    14    17 1   
    27    14    25 1   
    28    17    20 1   
    29    20    21 1   
    30    20    22 1   
    31    21    31 1   
    32    21    32 1   
    33    22    23 1   
    34    22    24 1   
    35    23    33 1   
    36    24    34 1   
    37    24    35 1   
    38    25    36 1   
    39    25    37 1   
    40    25    38 1   
    41    26    39 1   
    42    26    40 1   
    43    26    41 1   
    44    42    43 1   
    45    42    44 1   
    46    42    45 1   
    47    43    46 1   
    48    43    47 1   
    49    47    48 1   
    50    47    50 1   
    51    48    49 1   
    52    48    51 1   
    53    49    52 1   
    54    49    59 1   
    55    50    59 1   
    56    50    60 1   
    57    51    53 1   
    58    51    54 1   
    59    52    55 1   
    60    52    56 1   
    61    53    55 1   
    62    53    57 1   
    63    55    58 1   
    64    59    61 1   
@<TRIPOS>SUBSTRUCTURE
     1 TPP         1 TEMP              0 ****  ****    0 ROOT
