@<TRIPOS>MOLECULE
TPP
   60    62     1     0     0
SMALL
bcc


@<TRIPOS>ATOM
      1 S          -36.3230   -34.6810    24.2950 ss         1 TPP       0.570000
      2 C          -34.9450   -35.2240    23.4370 c2         1 TPP      -0.226000
      3 N          -33.8270   -34.9430    24.1300 na         1 TPP      -0.046000
      4 C1         -34.0480   -34.4030    25.4050 c2         1 TPP      -0.104000
      5 C2         -35.3790   -34.2180    25.6950 c2         1 TPP      -0.260000
      6 C3         -35.9910   -33.8260    27.0090 c3         1 TPP      -0.215000
      7 C4         -36.3560   -32.3460    27.2040 c3         1 TPP       0.086000
      8 O          -36.7330   -32.1670    28.5530 os         1 TPP      -0.752000
      9 P          -37.9460   -31.0730    28.8720 p5         1 TPP       2.038000
     10 P1         -39.9240   -33.3160    28.4880 p5         1 TPP       1.700500
     11 N1         -30.0550   -32.1620    23.6090 n2         1 TPP      -0.263000
     12 O1         -37.6780   -29.7330    28.2890 o          1 TPP      -0.924000
     13 O2         -40.1100   -33.2480    30.0580 o          1 TPP      -0.962833
     14 C5         -30.6350   -31.3410    22.7120 c2         1 TPP       0.042000
     15 O3         -38.0710   -31.1200    30.4170 o          1 TPP      -0.924000
     16 O4         -38.8680   -34.3750    28.0700 o          1 TPP      -0.962833
     17 N2         -31.7610   -31.6030    22.0610 n2         1 TPP      -0.295000
     18 O5         -39.2130   -31.7800    28.1710 os         1 TPP      -1.286000
     19 O6         -41.1470   -33.3680    27.6390 o          1 TPP      -0.962833
     20 C6         -32.4060   -32.7850    22.2680 c2         1 TPP       0.197000
     21 N3         -33.5310   -33.0070    21.5900 nv         1 TPP      -0.330000
     22 C7         -31.8580   -33.7270    23.2130 c2         1 TPP      -0.229000
     23 C8         -30.6860   -33.3280    23.8310 c2         1 TPP      -0.013000
     24 C9         -32.4550   -35.0660    23.5700 c3         1 TPP      -0.005000
     25 C10        -29.9750   -30.0220    22.4260 c3         1 TPP      -0.146000
     26 C11        -32.9010   -34.2010    26.3350 c3         1 TPP      -0.169000
     27 H          -36.9120   -34.3970    27.2190 hc         1 TPP       0.173000
     28 H1         -35.2710   -34.0890    27.8040 hc         1 TPP       0.173000
     29 H2         -35.4920   -31.6960    26.9770 h1         1 TPP       0.045500
     30 H3         -37.1730   -32.0700    26.5100 h1         1 TPP       0.045500
     31 H4         -33.8450   -32.2780    20.9510 hn         1 TPP       0.253500
     32 H5         -33.8620   -34.0170    21.4290 hn         1 TPP       0.253500
     33 H6         -30.2180   -33.9990    24.5650 h4         1 TPP       0.151000
     34 H7         -32.5390   -35.7470    22.7140 h1         1 TPP       0.164000
     35 H8         -31.8220   -35.5530    24.3280 h1         1 TPP       0.164000
     36 H9         -29.8780   -29.4340    23.3510 hc         1 TPP       0.076667
     37 H10        -30.5490   -29.4490    21.6850 hc         1 TPP       0.076667
     38 H11        -28.9520   -30.1750    22.0480 hc         1 TPP       0.076667
     39 H12        -32.3260   -35.1380    26.4430 hc         1 TPP       0.104000
     40 H13        -33.2730   -33.9010    27.3240 hc         1 TPP       0.104000
     41 H14        -32.2110   -33.4180    25.9810 hc         1 TPP       0.104000
     42 C          -34.7120   -37.5460    22.4390 c2         2 LIG       0.312000
     43 C1         -35.0050   -35.9810    22.0980 c3         2 LIG       0.210000
     44 O          -33.4610   -37.8290    22.5300 o          2 LIG      -0.602000
     45 O2         -35.6570   -38.3300    22.5410 o          2 LIG      -0.602000
     46 O3         -34.0540   -35.5080    21.2460 o          2 LIG      -0.714000
     47 C12        -36.4020   -35.8230    21.4870 c3         2 LIG      -0.196000
     48 C13        -36.6120   -36.8750    20.4030 c3         2 LIG      -0.122000
     49 H          -36.4830   -34.8140    21.0660 hc         2 LIG       0.063000
     50 H15        -37.1380   -35.9360    22.2910 hc         2 LIG       0.063000
     51 C14        -37.9530   -36.9090    19.7200 c2         2 LIG      -0.285000
     52 H16        -36.4370   -37.8700    20.8330 hc         2 LIG       0.137500
     53 H17        -35.8470   -36.7410    19.6270 hc         2 LIG       0.137500
     54 C15        -38.3200   -37.7980    18.7250 c2         2 LIG      -0.233000
     55 C16        -39.6550   -37.6020    18.2750 c2         2 LIG      -0.172000
     56 H18        -37.6520   -38.5600    18.3380 ha         2 LIG       0.134000
     57 C17        -40.2710   -36.5690    18.9380 c2         2 LIG      -0.517000
     58 H19        -40.1370   -38.1930    17.5050 ha         2 LIG       0.110000
     59 S          -39.2390   -35.8430    20.0920 ss         2 LIG       0.611000
     60 H20        -41.2800   -36.2030    18.8020 h4         2 LIG       0.142000
@<TRIPOS>BOND
     1     1     2 1   
     2     1     5 1   
     3     2     3 1   
     4     2    43 1   
     5     3     4 1   
     6     3    24 1   
     7     4     5 1   
     8     4    26 1   
     9     5     6 1   
    10     6     7 1   
    11     6    27 1   
    12     6    28 1   
    13     7     8 1   
    14     7    29 1   
    15     7    30 1   
    16     8     9 1   
    17     9    12 1   
    18     9    15 1   
    19     9    18 1   
    20    10    13 1   
    21    10    16 1   
    22    10    18 1   
    23    10    19 1   
    24    11    14 1   
    25    11    23 1   
    26    14    17 1   
    27    14    25 1   
    28    17    20 1   
    29    20    21 1   
    30    20    22 1   
    31    21    31 1   
    32    21    32 1   
    33    22    23 1   
    34    22    24 1   
    35    23    33 1   
    36    24    34 1   
    37    24    35 1   
    38    25    36 1   
    39    25    37 1   
    40    25    38 1   
    41    26    39 1   
    42    26    40 1   
    43    26    41 1   
    44    42    43 1   
    45    42    44 1   
    46    42    45 1   
    47    43    46 1   
    48    43    47 1   
    49    47    48 1   
    50    47    49 1   
    51    47    50 1   
    52    48    51 1   
    53    48    52 1   
    54    48    53 1   
    55    51    54 1   
    56    51    59 1   
    57    54    55 1   
    58    54    56 1   
    59    55    57 1   
    60    55    58 1   
    61    57    59 1   
    62    57    60 1   
@<TRIPOS>SUBSTRUCTURE
     1 TPP         1 TEMP              0 ****  ****    0 ROOT
