@<TRIPOS>MOLECULE
TPP
   65    68     1     0     0
SMALL
bcc


@<TRIPOS>ATOM
      1 S          -36.3230   -34.6810    24.2950 ss         1 TPP       0.555000
      2 C          -34.9450   -35.2240    23.4370 c2         1 TPP      -0.239000
      3 N          -33.8270   -34.9430    24.1300 na         1 TPP      -0.043000
      4 C1         -34.0480   -34.4030    25.4050 c2         1 TPP      -0.106000
      5 C2         -35.3790   -34.2180    25.6950 c2         1 TPP      -0.255000
      6 C3         -35.9910   -33.8260    27.0090 c3         1 TPP      -0.215000
      7 C4         -36.3560   -32.3460    27.2040 c3         1 TPP       0.086000
      8 O          -36.7330   -32.1670    28.5530 os         1 TPP      -0.752000
      9 P          -37.9460   -31.0730    28.8720 p5         1 TPP       2.037000
     10 P1         -39.9240   -33.3160    28.4880 p5         1 TPP       1.700500
     11 N1         -30.0550   -32.1620    23.6090 n2         1 TPP      -0.256000
     12 O1         -37.6780   -29.7330    28.2890 o          1 TPP      -0.923000
     13 O2         -40.1100   -33.2480    30.0580 o          1 TPP      -0.962500
     14 C5         -30.6350   -31.3410    22.7120 c2         1 TPP       0.041000
     15 O3         -38.0710   -31.1200    30.4170 o          1 TPP      -0.923000
     16 O4         -38.8680   -34.3750    28.0700 o          1 TPP      -0.962500
     17 N2         -31.7610   -31.6030    22.0610 n2         1 TPP      -0.290000
     18 O5         -39.2130   -31.7800    28.1710 os         1 TPP      -1.286000
     19 O6         -41.1470   -33.3680    27.6390 o          1 TPP      -0.962500
     20 C6         -32.4060   -32.7850    22.2680 c2         1 TPP       0.191000
     21 N3         -33.5310   -33.0070    21.5900 nv         1 TPP      -0.336000
     22 C7         -31.8580   -33.7270    23.2130 c2         1 TPP      -0.227000
     23 C8         -30.6860   -33.3280    23.8310 c2         1 TPP      -0.010000
     24 C9         -32.4550   -35.0660    23.5700 c3         1 TPP      -0.010000
     25 C10        -29.9750   -30.0220    22.4260 c3         1 TPP      -0.146000
     26 C11        -32.9010   -34.2010    26.3350 c3         1 TPP      -0.171000
     27 H          -36.9120   -34.3970    27.2190 hc         1 TPP       0.175500
     28 H1         -35.2710   -34.0890    27.8040 hc         1 TPP       0.175500
     29 H2         -35.4920   -31.6960    26.9770 h1         1 TPP       0.045500
     30 H3         -37.1730   -32.0700    26.5100 h1         1 TPP       0.045500
     31 H4         -33.8450   -32.2780    20.9510 hn         1 TPP       0.249500
     32 H5         -33.8620   -34.0170    21.4290 hn         1 TPP       0.249500
     33 H6         -30.2180   -33.9990    24.5650 h4         1 TPP       0.156000
     34 H7         -32.5390   -35.7470    22.7140 h1         1 TPP       0.167500
     35 H8         -31.8220   -35.5530    24.3280 h1         1 TPP       0.167500
     36 H9         -29.8780   -29.4340    23.3510 hc         1 TPP       0.077667
     37 H10        -30.5490   -29.4490    21.6850 hc         1 TPP       0.077667
     38 H11        -28.9520   -30.1750    22.0480 hc         1 TPP       0.077667
     39 H12        -32.3260   -35.1380    26.4430 hc         1 TPP       0.105667
     40 H13        -33.2730   -33.9010    27.3240 hc         1 TPP       0.105667
     41 H14        -32.2110   -33.4180    25.9810 hc         1 TPP       0.105667
     42 C          -34.7120   -37.5460    22.4390 c2         2 LIG       0.314000
     43 C1         -35.0050   -35.9810    22.0980 c3         2 LIG       0.214000
     44 O          -33.4610   -37.8290    22.5300 o          2 LIG      -0.593000
     45 O2         -35.6570   -38.3300    22.5410 o          2 LIG      -0.593000
     46 O3         -34.0540   -35.5080    21.2460 o          2 LIG      -0.709000
     47 C12        -36.4000   -35.8230    21.4870 c3         2 LIG      -0.196000
     48 C13        -37.1080   -36.9400    20.7580 c2         2 LIG       0.108000
     49 H          -37.0560   -35.5320    22.3170 hc         2 LIG       0.118000
     50 H15        -36.3320   -34.9840    20.7830 hc         2 LIG       0.118000
     51 C14        -38.3990   -36.6410    20.3200 c2         2 LIG      -0.108000
     52 C15        -39.1280   -37.5940    19.6300 c2         2 LIG      -0.128000
     53 H16        -38.8370   -35.6660    20.5160 ha         2 LIG       0.177000
     54 C16        -38.5610   -38.8390    19.3810 ca         2 LIG      -0.097000
     55 H17        -40.1320   -37.3550    19.2930 ha         2 LIG       0.125000
     56 C17        -37.2480   -39.0800    19.8450 ca         2 LIG       0.019000
     57 C18        -39.2850   -39.8220    18.6850 ca         2 LIG      -0.099000
     58 N          -36.5360   -38.1410    20.5190 n2         2 LIG      -0.185000
     59 C19        -36.7080   -40.3370    19.5770 ca         2 LIG      -0.106000
     60 C20        -37.4250   -41.3250    18.8830 ca         2 LIG      -0.159000
     61 H18        -35.7000   -40.5560    19.9180 ha         2 LIG       0.131000
     62 C21        -38.7160   -41.0650    18.4380 ca         2 LIG      -0.179000
     63 H19        -40.2940   -39.6210    18.3350 ha         2 LIG       0.115000
     64 H20        -36.9710   -42.2930    18.6930 ha         2 LIG       0.097000
     65 H21        -39.2790   -41.8240    17.8990 ha         2 LIG       0.099000
@<TRIPOS>BOND
     1     1     2 1   
     2     1     5 1   
     3     2     3 1   
     4     2    43 1   
     5     3     4 1   
     6     3    24 1   
     7     4     5 1   
     8     4    26 1   
     9     5     6 1   
    10     6     7 1   
    11     6    27 1   
    12     6    28 1   
    13     7     8 1   
    14     7    29 1   
    15     7    30 1   
    16     8     9 1   
    17     9    12 1   
    18     9    15 1   
    19     9    18 1   
    20    10    13 1   
    21    10    16 1   
    22    10    18 1   
    23    10    19 1   
    24    11    14 1   
    25    11    23 1   
    26    14    17 1   
    27    14    25 1   
    28    17    20 1   
    29    20    21 1   
    30    20    22 1   
    31    21    31 1   
    32    21    32 1   
    33    22    23 1   
    34    22    24 1   
    35    23    33 1   
    36    24    34 1   
    37    24    35 1   
    38    25    36 1   
    39    25    37 1   
    40    25    38 1   
    41    26    39 1   
    42    26    40 1   
    43    26    41 1   
    44    42    43 1   
    45    42    44 1   
    46    42    45 1   
    47    43    46 1   
    48    43    47 1   
    49    47    48 1   
    50    47    49 1   
    51    47    50 1   
    52    48    51 1   
    53    48    58 1   
    54    51    52 1   
    55    51    53 1   
    56    52    54 1   
    57    52    55 1   
    58    54    56 1   
    59    54    57 1   
    60    56    58 1   
    61    56    59 1   
    62    57    62 1   
    63    57    63 1   
    64    59    60 1   
    65    59    61 1   
    66    60    62 1   
    67    60    64 1   
    68    62    65 1   
@<TRIPOS>SUBSTRUCTURE
     1 TPP         1 TEMP              0 ****  ****    0 ROOT
