@<TRIPOS>MOLECULE
TPP
   61    63     1     0     0
SMALL
bcc


@<TRIPOS>ATOM
      1 S          -36.3230   -34.6810    24.2950 ss         1 TPP       1.157000
      2 C          -34.9450   -35.2240    23.4370 c2         1 TPP      -0.490000
      3 N          -33.8270   -34.9430    24.1300 na         1 TPP      -0.004000
      4 C1         -34.0480   -34.4030    25.4050 c2         1 TPP      -0.087000
      5 C2         -35.3790   -34.2180    25.6950 c2         1 TPP      -0.471000
      6 C3         -35.9910   -33.8260    27.0090 c3         1 TPP      -0.127000
      7 C4         -36.3560   -32.3460    27.2040 c3         1 TPP       0.061000
      8 O          -36.7330   -32.1670    28.5530 os         1 TPP      -0.762000
      9 P          -37.9460   -31.0730    28.8720 p5         1 TPP       2.062000
     10 P1         -39.9240   -33.3160    28.4880 p5         1 TPP       1.798500
     11 N1         -30.0550   -32.1620    23.6090 n2         1 TPP      -0.377000
     12 O1         -37.6780   -29.7330    28.2890 o          1 TPP      -0.905500
     13 O2         -40.1100   -33.2480    30.0580 o          1 TPP      -0.898167
     14 C5         -30.6350   -31.3410    22.7120 c2         1 TPP       0.037000
     15 O3         -38.0710   -31.1200    30.4170 o          1 TPP      -0.905500
     16 O4         -38.8680   -34.3750    28.0700 o          1 TPP      -0.898167
     17 N2         -31.7610   -31.6030    22.0610 n2         1 TPP      -0.377000
     18 O5         -39.2130   -31.7800    28.1710 os         1 TPP      -1.299000
     19 O6         -41.1470   -33.3680    27.6390 o          1 TPP      -0.898167
     20 C6         -32.4060   -32.7850    22.2680 c2         1 TPP       0.118000
     21 N3         -33.5310   -33.0070    21.5900 nv         1 TPP      -0.374000
     22 C7         -31.8580   -33.7270    23.2130 c2         1 TPP      -0.262000
     23 C8         -30.6860   -33.3280    23.8310 c2         1 TPP      -0.030000
     24 C9         -32.4550   -35.0660    23.5700 c3         1 TPP       0.017000
     25 C10        -29.9750   -30.0220    22.4260 c3         1 TPP      -0.136000
     26 C11        -32.9010   -34.2010    26.3350 c3         1 TPP      -0.143000
     27 H          -36.9120   -34.3970    27.2190 hc         1 TPP       0.093500
     28 H1         -35.2710   -34.0890    27.8040 hc         1 TPP       0.093500
     29 H2         -35.4920   -31.6960    26.9770 h1         1 TPP       0.048000
     30 H3         -37.1730   -32.0700    26.5100 h1         1 TPP       0.048000
     31 H4         -33.8450   -32.2780    20.9510 hn         1 TPP       0.147000
     32 H5         -33.8620   -34.0170    21.4290 hn         1 TPP       0.147000
     33 H6         -30.2180   -33.9990    24.5650 h4         1 TPP       0.112000
     34 H7         -32.5390   -35.7470    22.7140 h1         1 TPP       0.123000
     35 H8         -31.8220   -35.5530    24.3280 h1         1 TPP       0.123000
     36 H9         -29.8780   -29.4340    23.3510 hc         1 TPP       0.052000
     37 H10        -30.5490   -29.4490    21.6850 hc         1 TPP       0.052000
     38 H11        -28.9520   -30.1750    22.0480 hc         1 TPP       0.052000
     39 H12        -32.3260   -35.1380    26.4430 hc         1 TPP       0.073333
     40 H13        -33.2730   -33.9010    27.3240 hc         1 TPP       0.073333
     41 H14        -32.2110   -33.4180    25.9810 hc         1 TPP       0.073333
     42 C          -34.7120   -37.5460    22.4390 c2         2 LIG       0.354000
     43 C1         -35.0050   -35.9810    22.0980 c3         2 LIG       0.083000
     44 O          -33.4610   -37.8290    22.5300 o          2 LIG      -0.585500
     45 O2         -35.6570   -38.3300    22.5410 o          2 LIG      -0.585500
     46 O3         -34.0540   -35.5080    21.2460 o          2 LIG      -0.340000
     47 C12        -36.4010   -35.8230    21.4870 c3         2 LIG      -0.151000
     48 C13        -36.9520   -34.4290    21.6360 ca         2 LIG      -0.064000
     49 H          -37.0580   -36.5510    21.9770 hc         2 LIG       0.113000
     50 H15        -36.3970   -36.1110    20.4300 hc         2 LIG       0.113000
     51 C14        -36.5720   -33.4130    20.7480 ca         2 LIG      -0.097500
     52 C15        -37.8540   -34.1310    22.6680 ca         2 LIG      -0.097500
     53 C16        -37.0990   -32.1240    20.8780 ca         2 LIG      -0.191000
     54 H16        -35.8700   -33.6170    19.9410 ha         2 LIG       0.178500
     55 C17        -38.3830   -32.8460    22.7920 ca         2 LIG      -0.191000
     56 H17        -38.1590   -34.8960    23.3780 ha         2 LIG       0.178500
     57 C18        -38.0070   -31.8540    21.8950 ca         2 LIG       0.018000
     58 H18        -36.7970   -31.3550    20.1750 ha         2 LIG       0.123500
     59 H19        -39.0910   -32.6200    23.5860 ha         2 LIG       0.123500
     60 O7         -38.5580   -30.6180    22.0480 oh         2 LIG      -0.304000
     61 H20        -38.2290   -30.0410    21.3390 ho         2 LIG       0.204000
@<TRIPOS>BOND
     1     1     2 1   
     2     1     5 1   
     3     2     3 1   
     4     2    43 1   
     5     3     4 1   
     6     3    24 1   
     7     4     5 1   
     8     4    26 1   
     9     5     6 1   
    10     6     7 1   
    11     6    27 1   
    12     6    28 1   
    13     7     8 1   
    14     7    29 1   
    15     7    30 1   
    16     8     9 1   
    17     9    12 1   
    18     9    15 1   
    19     9    18 1   
    20    10    13 1   
    21    10    16 1   
    22    10    18 1   
    23    10    19 1   
    24    11    14 1   
    25    11    23 1   
    26    14    17 1   
    27    14    25 1   
    28    17    20 1   
    29    20    21 1   
    30    20    22 1   
    31    21    31 1   
    32    21    32 1   
    33    22    23 1   
    34    22    24 1   
    35    23    33 1   
    36    24    34 1   
    37    24    35 1   
    38    25    36 1   
    39    25    37 1   
    40    25    38 1   
    41    26    39 1   
    42    26    40 1   
    43    26    41 1   
    44    42    43 1   
    45    42    44 1   
    46    42    45 1   
    47    43    46 1   
    48    43    47 1   
    49    47    48 1   
    50    47    49 1   
    51    47    50 1   
    52    48    51 1   
    53    48    52 1   
    54    51    53 1   
    55    51    54 1   
    56    52    55 1   
    57    52    56 1   
    58    53    57 1   
    59    53    58 1   
    60    55    57 1   
    61    55    59 1   
    62    57    60 1   
    63    60    61 1   
@<TRIPOS>SUBSTRUCTURE
     1 TPP         1 TEMP              0 ****  ****    0 ROOT
