@<TRIPOS>MOLECULE
TPP
   55    56     1     0     0
SMALL
bcc


@<TRIPOS>ATOM
      1 S          -36.3230   -34.6810    24.2950 ss         1 TPP       0.656000
      2 C          -34.9450   -35.2240    23.4370 c2         1 TPP      -0.235000
      3 N          -33.8270   -34.9430    24.1300 na         1 TPP      -0.002000
      4 C1         -34.0480   -34.4030    25.4050 c2         1 TPP      -0.058000
      5 C2         -35.3790   -34.2180    25.6950 c2         1 TPP      -0.328000
      6 C3         -35.9910   -33.8260    27.0090 c3         1 TPP      -0.174000
      7 C4         -36.3560   -32.3460    27.2040 c3         1 TPP       0.101000
      8 O          -36.7330   -32.1670    28.5530 os         1 TPP      -0.729000
      9 P          -37.9460   -31.0730    28.8720 p5         1 TPP       2.045000
     10 P1         -39.9240   -33.3160    28.4880 p5         1 TPP       1.700500
     11 N1         -30.0550   -32.1620    23.6090 n2         1 TPP      -0.365000
     12 O1         -37.6780   -29.7330    28.2890 o          1 TPP      -0.926000
     13 O2         -40.1100   -33.2480    30.0580 o          1 TPP      -0.965167
     14 C5         -30.6350   -31.3410    22.7120 c2         1 TPP       0.046000
     15 O3         -38.0710   -31.1200    30.4170 o          1 TPP      -0.926000
     16 O4         -38.8680   -34.3750    28.0700 o          1 TPP      -0.965167
     17 N2         -31.7610   -31.6030    22.0610 n2         1 TPP      -0.353000
     18 O5         -39.2130   -31.7800    28.1710 os         1 TPP      -1.274000
     19 O6         -41.1470   -33.3680    27.6390 o          1 TPP      -0.965167
     20 C6         -32.4060   -32.7850    22.2680 c2         1 TPP       0.129000
     21 N3         -33.5310   -33.0070    21.5900 nv         1 TPP      -0.383000
     22 C7         -31.8580   -33.7270    23.2130 c2         1 TPP      -0.309000
     23 C8         -30.6860   -33.3280    23.8310 c2         1 TPP      -0.004000
     24 C9         -32.4550   -35.0660    23.5700 c3         1 TPP       0.034000
     25 C10        -29.9750   -30.0220    22.4260 c3         1 TPP      -0.140000
     26 C11        -32.9010   -34.2010    26.3350 c3         1 TPP      -0.164000
     27 H          -36.9120   -34.3970    27.2190 hc         1 TPP       0.116000
     28 H1         -35.2710   -34.0890    27.8040 hc         1 TPP       0.116000
     29 H2         -35.4920   -31.6960    26.9770 h1         1 TPP       0.040000
     30 H3         -37.1730   -32.0700    26.5100 h1         1 TPP       0.040000
     31 H4         -33.8450   -32.2780    20.9510 hn         1 TPP       0.151500
     32 H5         -33.8620   -34.0170    21.4290 hn         1 TPP       0.151500
     33 H6         -30.2180   -33.9990    24.5650 h4         1 TPP       0.110000
     34 H7         -32.5390   -35.7470    22.7140 h1         1 TPP       0.135500
     35 H8         -31.8220   -35.5530    24.3280 h1         1 TPP       0.135500
     36 H9         -29.8780   -29.4340    23.3510 hc         1 TPP       0.057667
     37 H10        -30.5490   -29.4490    21.6850 hc         1 TPP       0.057667
     38 H11        -28.9520   -30.1750    22.0480 hc         1 TPP       0.057667
     39 H12        -32.3260   -35.1380    26.4430 hc         1 TPP       0.106333
     40 H13        -33.2730   -33.9010    27.3240 hc         1 TPP       0.106333
     41 H14        -32.2110   -33.4180    25.9810 hc         1 TPP       0.106333
     42 C          -34.7120   -37.5460    22.4390 c2         2 LIG       0.356000
     43 C1         -35.0050   -35.9810    22.0980 c3         2 LIG       0.040000
     44 O          -33.4610   -37.8290    22.5300 o          2 LIG      -0.552500
     45 O2         -35.6570   -38.3300    22.5410 o          2 LIG      -0.552500
     46 O3         -34.0540   -35.5080    21.2460 o          2 LIG      -0.292000
     47 C12        -36.4000   -35.8230    21.4870 c3         2 LIG      -0.156000
     48 C13        -37.1050   -37.1680    21.3300 c3         2 LIG      -0.200000
     49 H          -36.2900   -35.3380    20.5110 hc         2 LIG       0.090500
     50 H15        -36.9920   -35.1680    22.1370 hc         2 LIG       0.090500
     51 C14        -38.4600   -36.9890    20.6940 c2         2 LIG       0.322000
     52 H16        -37.2370   -37.6350    22.3130 hc         2 LIG       0.081500
     53 H17        -36.5130   -37.8380    20.6990 hc         2 LIG       0.081500
     54 O7         -39.1730   -38.1370    20.6520 o          2 LIG      -0.619000
     55 O8         -38.8870   -35.9380    20.2470 o          2 LIG      -0.619000
@<TRIPOS>BOND
     1     1     2 1   
     2     1     5 1   
     3     2     3 1   
     4     2    43 1   
     5     3     4 1   
     6     3    24 1   
     7     4     5 1   
     8     4    26 1   
     9     5     6 1   
    10     6     7 1   
    11     6    27 1   
    12     6    28 1   
    13     7     8 1   
    14     7    29 1   
    15     7    30 1   
    16     8     9 1   
    17     9    12 1   
    18     9    15 1   
    19     9    18 1   
    20    10    13 1   
    21    10    16 1   
    22    10    18 1   
    23    10    19 1   
    24    11    14 1   
    25    11    23 1   
    26    14    17 1   
    27    14    25 1   
    28    17    20 1   
    29    20    21 1   
    30    20    22 1   
    31    21    31 1   
    32    21    32 1   
    33    22    23 1   
    34    22    24 1   
    35    23    33 1   
    36    24    34 1   
    37    24    35 1   
    38    25    36 1   
    39    25    37 1   
    40    25    38 1   
    41    26    39 1   
    42    26    40 1   
    43    26    41 1   
    44    42    43 1   
    45    42    44 1   
    46    42    45 1   
    47    43    46 1   
    48    43    47 1   
    49    47    48 1   
    50    47    49 1   
    51    47    50 1   
    52    48    51 1   
    53    48    52 1   
    54    48    53 1   
    55    51    54 1   
    56    51    55 1   
@<TRIPOS>SUBSTRUCTURE
     1 TPP         1 TEMP              0 ****  ****    0 ROOT
