@<TRIPOS>MOLECULE
TPP
   41    42     1     0     0
SMALL
bcc


@<TRIPOS>ATOM
      1 S          -36.3020   -34.1250    24.3420 ss         1 TPP       0.327000
      2 C          -34.9850   -34.5550    23.3360 c1         1 TPP      -0.509000
      3 N          -33.9150   -34.6460    24.1470 n3         1 TPP       0.088000
      4 C1         -34.0750   -34.3560    25.5160 c2         1 TPP      -0.285000
      5 C2         -35.3660   -34.0660    25.8310 c2         1 TPP      -0.208000
      6 C3         -35.9610   -33.7590    27.1610 c3         1 TPP      -0.203000
      7 C4         -36.3630   -32.2890    27.3260 c3         1 TPP       0.075000
      8 O          -36.7770   -32.1120    28.6690 os         1 TPP      -0.748000
      9 P          -37.9960   -31.0330    28.9390 p5         1 TPP       2.066000
     10 P1         -39.9180   -33.2770    28.5720 p5         1 TPP       1.742500
     11 N1         -30.0820   -32.1450    23.6100 n2         1 TPP      -0.342000
     12 O1         -37.7260   -29.7160    28.3070 o          1 TPP      -0.886500
     13 O2         -40.1120   -33.2130    30.1240 o          1 TPP      -0.767500
     14 C5         -30.5980   -31.3390    22.6640 c2         1 TPP       0.048000
     15 O3         -38.1170   -31.0370    30.4700 o          1 TPP      -0.886500
     16 O4         -38.8690   -34.3210    28.1340 o          1 TPP      -0.767500
     17 N2         -31.6810   -31.6290    21.9410 n2         1 TPP      -0.356000
     18 O5         -39.2490   -31.7450    28.2330 os         1 TPP      -1.295000
     19 O6         -41.1570   -33.3620    27.7430 o          1 TPP      -0.767500
     20 C6         -32.3380   -32.7800    22.1760 c2         1 TPP       0.135000
     21 N3         -33.4160   -33.0750    21.4020 nv         1 TPP      -0.426000
     22 C7         -31.8790   -33.6720    23.1800 c2         1 TPP      -0.330000
     23 C8         -30.7320   -33.2950    23.8390 c2         1 TPP       0.002000
     24 C9         -32.5990   -34.9360    23.5440 c3         1 TPP       0.038000
     25 C10        -29.9630   -30.0080    22.4210 c3         1 TPP      -0.143000
     26 C11        -32.9080   -34.3750    26.4370 c3         1 TPP      -0.109000
     27 H          -36.8680   -34.3490    27.3480 hc         1 TPP       0.179500
     28 H1         -35.2370   -34.0050    27.9470 hc         1 TPP       0.179500
     29 H2         -35.5200   -31.6170    27.1150 h1         1 TPP       0.072000
     30 H3         -37.1740   -32.0460    26.6250 h1         1 TPP       0.072000
     31 H4         -33.7810   -32.3330    20.8080 hn         1 TPP       0.138500
     32 H5         -34.1350   -33.6890    21.8350 hn         1 TPP       0.138500
     33 H6         -30.3010   -33.9510    24.5980 h4         1 TPP       0.136000
     34 H7         -32.8000   -35.5680    22.6730 h1         1 TPP       0.105000
     35 H8         -31.9870   -35.5070    24.2500 h1         1 TPP       0.105000
     36 H9         -30.1570   -29.3480    23.2750 hc         1 TPP       0.064333
     37 H10        -30.3680   -29.5450    21.5210 hc         1 TPP       0.064333
     38 H11        -28.8780   -30.0950    22.3600 hc         1 TPP       0.064333
     39 H12        -32.3880   -35.3400    26.4250 hc         1 TPP       0.064000
     40 H13        -33.2400   -34.1820    27.4590 hc         1 TPP       0.064000
     41 H14        -32.1790   -33.6010    26.1740 hc         1 TPP       0.064000
@<TRIPOS>BOND
     1     1     2 1   
     2     1     5 1   
     3     2     3 1   
     4     3     4 1   
     5     3    24 1   
     6     4     5 1   
     7     4    26 1   
     8     5     6 1   
     9     6     7 1   
    10     6    27 1   
    11     6    28 1   
    12     7     8 1   
    13     7    29 1   
    14     7    30 1   
    15     8     9 1   
    16     9    12 1   
    17     9    15 1   
    18     9    18 1   
    19    10    13 1   
    20    10    16 1   
    21    10    18 1   
    22    10    19 1   
    23    11    14 1   
    24    11    23 1   
    25    14    17 1   
    26    14    25 1   
    27    17    20 1   
    28    20    21 1   
    29    20    22 1   
    30    21    31 1   
    31    21    32 1   
    32    22    23 1   
    33    22    24 1   
    34    23    33 1   
    35    24    34 1   
    36    24    35 1   
    37    25    36 1   
    38    25    37 1   
    39    25    38 1   
    40    26    39 1   
    41    26    40 1   
    42    26    41 1   
@<TRIPOS>SUBSTRUCTURE
     1 TPP         1 TEMP              0 ****  ****    0 ROOT
